NOVO24/1726538/GD.dss
! GERACAO DISTRIBUIDA — gerada de UGBT_tab e UGMT_tab
! Unidades com potencia nula sao omitidas (gerariam NaN).
! 157 unidades descartadas por potencia nula.
! 592 unidades de BT realocadas para o secundario do transformador (rede secundaria nao modelada).
! 0 unidades descartadas por ponto de conexao ausente da rede.
! irradiance=1 — ver o docstring: 1,0 e meio-dia de ceu claro, nao a ponta de carga.
! 3 barras tiveram a GD limitada a capacidade do transformador (7 kW cortados).
! inversores em pf=1 — ver o docstring de _pv: 0,92 e capacidade exigida pelo PRODIST, nao despacho.
! 0 unidades de MT ligadas pelo PAC da carga (casadas por CEG_GD): o PAC da UGMT nao existe na SSDMT.
New PVSystem.GD_ad922c386573651eae43398f6077e7ff487921bcfb3206c708e4155955bd7ef1 phases=3 bus1=node_427981169.1.2.3 conn=wye kv=13.8000 pf=1 pmpp=13.47 kva=13.47 irradiance=1 temperature=25 %cutin=20 %cutout=20 effcurve=MyEff P-TCurve=MyPvsT Daily=IRRAD_DIA TDaily=TEMP_DIA
New PVSystem.GD_d7d9ae69d8164d796e65ae88fce7b2bf3fcbd62bfb63b9eb1edd61e573eb2ddd_1 phases=1 bus1=node_415724644.1.4 conn=wye kv=0.1270 pf=1 pmpp=0.40 kva=0.40 irradiance=1 temperature=25 %cutin=20 %cutout=20 effcurve=MyEff P-TCurve=MyPvsT Daily=IRRAD_DIA TDaily=TEMP_DIA
New PVSystem.GD_d7d9ae69d8164d796e65ae88fce7b2bf3fcbd62bfb63b9eb1edd61e573eb2ddd_2 phases=1 bus1=node_415724644.2.4 conn=wye kv=0.1270 pf=1 pmpp=0.40 kva=0.40 irradiance=1 temperature=25 %cutin=20 %cutout=20 effcurve=MyEff P-TCurve=MyPvsT Daily=IRRAD_DIA TDaily=TEMP_DIA
New PVSystem.GD_d7d9ae69d8164d796e65ae88fce7b2bf3fcbd62bfb63b9eb1edd61e573eb2ddd_3 phases=1 bus1=node_415724644.3.4 conn=wye kv=0.1270 pf=1 pmpp=0.40 kva=0.40 irradiance=1 temperature=25 %cutin=20 %cutout=20 effcurve=MyEff P-TCurve=MyPvsT Daily=IRRAD_DIA TDaily=TEMP_DIA
New PVSystem.GD_21a83d486e7b070ad1d94674e156c4beb16ba951b5612b95d183beb5bb0e53cd_1 phases=1 bus1=node_415724644.1.4 conn=wye kv=0.1270 pf=1 pmpp=2.40 kva=2.40 irradiance=1 temperature=25 %cutin=20 %cutout=20 effcurve=MyEff P-TCurve=MyPvsT Daily=IRRAD_DIA TDaily=TEMP_DIA
New PVSystem.GD_21a83d486e7b070ad1d94674e156c4beb16ba951b5612b95d183beb5bb0e53cd_2 phases=1 bus1=node_415724644.2.4 conn=wye kv=0.1270 pf=1 pmpp=2.40 kva=2.40 irradiance=1 temperature=25 %cutin=20 %cutout=20 effcurve=MyEff P-TCurve=MyPvsT Daily=IRRAD_DIA TDaily=TEMP_DIA
New PVSystem.GD_21a83d486e7b070ad1d94674e156c4beb16ba951b5612b95d183beb5bb0e53cd_3 phases=1 bus1=node_415724644.3.4 conn=wye kv=0.1270 pf=1 pmpp=2.40 kva=2.40 irradiance=1 temperature=25 %cutin=20 %cutout=20 effcurve=MyEff P-TCurve=MyPvsT Daily=IRRAD_DIA TDaily=TEMP_DIA
New PVSystem.GD_1e99ef261cf3fdbcb84bf177c4fe88b88dc5e6a43e3cdf36a5ec78ba2049935c_1 phases=1 bus1=node_415724644.1.4 conn=wye kv=0.1270 pf=1 pmpp=0.74 kva=0.74 irradiance=1 temperature=25 %cutin=20 %cutout=20 effcurve=MyEff P-TCurve=MyPvsT Daily=IRRAD_DIA TDaily=TEMP_DIA
New PVSystem.GD_1e99ef261cf3fdbcb84bf177c4fe88b88dc5e6a43e3cdf36a5ec78ba2049935c_2 phases=1 bus1=node_415724644.2.4 conn=wye kv=0.1270 pf=1 pmpp=0.74 kva=0.74 irradiance=1 temperature=25 %cutin=20 %cutout=20 effcurve=MyEff P-TCurve=MyPvsT Daily=IRRAD_DIA TDaily=TEMP_DIA
New PVSystem.GD_1e99ef261cf3fdbcb84bf177c4fe88b88dc5e6a43e3cdf36a5ec78ba2049935c_3 phases=1 bus1=node_415724644.3.4 conn=wye kv=0.1270 pf=1 pmpp=0.74 kva=0.74 irradiance=1 temperature=25 %cutin=20 %cutout=20 effcurve=MyEff P-TCurve=MyPvsT Daily=IRRAD_DIA TDaily=TEMP_DIA
New PVSystem.GD_cbe7882f762ca934b685557c9865f4d80d88e1b235eb2776475567f8f5d7b732_1 phases=1 bus1=node_415724644.1.4 conn=wye kv=0.1270 pf=1 pmpp=0.75 kva=0.75 irradiance=1 temperature=25 %cutin=20 %cutout=20 effcurve=MyEff P-TCurve=MyPvsT Daily=IRRAD_DIA TDaily=TEMP_DIA
New PVSystem.GD_cbe7882f762ca934b685557c9865f4d80d88e1b235eb2776475567f8f5d7b732_2 phases=1 bus1=node_415724644.2.4 conn=wye kv=0.1270 pf=1 pmpp=0.75 kva=0.75 irradiance=1 temperature=25 %cutin=20 %cutout=20 effcurve=MyEff P-TCurve=MyPvsT Daily=IRRAD_DIA TDaily=TEMP_DIA
New PVSystem.GD_cbe7882f762ca934b685557c9865f4d80d88e1b235eb2776475567f8f5d7b732_3 phases=1 bus1=node_415724644.3.4 conn=wye kv=0.1270 pf=1 pmpp=0.75 kva=0.75 irradiance=1 temperature=25 %cutin=20 %cutout=20 effcurve=MyEff P-TCurve=MyPvsT Daily=IRRAD_DIA TDaily=TEMP_DIA
New PVSystem.GD_90258fa7bf75781c5659e6c00ac460016af394c9e8dffb43087245d23c99c4b7_1 phases=1 bus1=node_415724644.1.4 conn=wye kv=0.1270 pf=1 pmpp=0.82 kva=0.82 irradiance=1 temperature=25 %cutin=20 %cutout=20 effcurve=MyEff P-TCurve=MyPvsT Daily=IRRAD_DIA TDaily=TEMP_DIA
New PVSystem.GD_90258fa7bf75781c5659e6c00ac460016af394c9e8dffb43087245d23c99c4b7_2 phases=1 bus1=node_415724644.2.4 conn=wye kv=0.1270 pf=1 pmpp=0.82 kva=0.82 irradiance=1 temperature=25 %cutin=20 %cutout=20 effcurve=MyEff P-TCurve=MyPvsT Daily=IRRAD_DIA TDaily=TEMP_DIA
New PVSystem.GD_90258fa7bf75781c5659e6c00ac460016af394c9e8dffb43087245d23c99c4b7_3 phases=1 bus1=node_415724644.3.4 conn=wye kv=0.1270 pf=1 pmpp=0.82 kva=0.82 irradiance=1 temperature=25 %cutin=20 %cutout=20 effcurve=MyEff P-TCurve=MyPvsT Daily=IRRAD_DIA TDaily=TEMP_DIA
New PVSystem.GD_82c2f16ed4d16699ca11433762ab383bae887b6f456456f98504508d0ca9b2ea_1 phases=1 bus1=node_415525149.1.4 conn=wye kv=0.1270 pf=1 pmpp=0.69 kva=0.69 irradiance=1 temperature=25 %cutin=20 %cutout=20 effcurve=MyEff P-TCurve=MyPvsT Daily=IRRAD_DIA TDaily=TEMP_DIA
New PVSystem.GD_82c2f16ed4d16699ca11433762ab383bae887b6f456456f98504508d0ca9b2ea_2 phases=1 bus1=node_415525149.2.4 conn=wye kv=0.1270 pf=1 pmpp=0.69 kva=0.69 irradiance=1 temperature=25 %cutin=20 %cutout=20 effcurve=MyEff P-TCurve=MyPvsT Daily=IRRAD_DIA TDaily=TEMP_DIA
New PVSystem.GD_82c2f16ed4d16699ca11433762ab383bae887b6f456456f98504508d0ca9b2ea_3 phases=1 bus1=node_415525149.3.4 conn=wye kv=0.1270 pf=1 pmpp=0.69 kva=0.69 irradiance=1 temperature=25 %cutin=20 %cutout=20 effcurve=MyEff P-TCurve=MyPvsT Daily=IRRAD_DIA TDaily=TEMP_DIA
New PVSystem.GD_e66b769994e25dae1e137a4cb61ef240fccd1f2faba6c574c20242b2f080ff2a_1 phases=1 bus1=node_415525149.1.4 conn=wye kv=0.1270 pf=1 pmpp=1.35 kva=1.35 irradiance=1 temperature=25 %cutin=20 %cutout=20 effcurve=MyEff P-TCurve=MyPvsT Daily=IRRAD_DIA TDaily=TEMP_DIA
New PVSystem.GD_e66b769994e25dae1e137a4cb61ef240fccd1f2faba6c574c20242b2f080ff2a_2 phases=1 bus1=node_415525149.2.4 conn=wye kv=0.1270 pf=1 pmpp=1.35 kva=1.35 irradiance=1 temperature=25 %cutin=20 %cutout=20 effcurve=MyEff P-TCurve=MyPvsT Daily=IRRAD_DIA TDaily=TEMP_DIA
New PVSystem.GD_e66b769994e25dae1e137a4cb61ef240fccd1f2faba6c574c20242b2f080ff2a_3 phases=1 bus1=node_415525149.3.4 conn=wye kv=0.1270 pf=1 pmpp=1.35 kva=1.35 irradiance=1 temperature=25 %cutin=20 %cutout=20 effcurve=MyEff P-TCurve=MyPvsT Daily=IRRAD_DIA TDaily=TEMP_DIA
New PVSystem.GD_90ea12714df9268cc64a9e03f5d3724876f5fc4e86e28943e81604bcc9a9cda8_1 phases=1 bus1=node_415525149.1.4 conn=wye kv=0.1270 pf=1 pmpp=1.63 kva=1.63 irradiance=1 temperature=25 %cutin=20 %cutout=20 effcurve=MyEff P-TCurve=MyPvsT Daily=IRRAD_DIA TDaily=TEMP_DIA
New PVSystem.GD_90ea12714df9268cc64a9e03f5d3724876f5fc4e86e28943e81604bcc9a9cda8_2 phases=1 bus1=node_415525149.2.4 conn=wye kv=0.1270 pf=1 pmpp=1.63 kva=1.63 irradiance=1 temperature=25 %cutin=20 %cutout=20 effcurve=MyEff P-TCurve=MyPvsT Daily=IRRAD_DIA TDaily=TEMP_DIA
New PVSystem.GD_90ea12714df9268cc64a9e03f5d3724876f5fc4e86e28943e81604bcc9a9cda8_3 phases=1 bus1=node_415525149.3.4 conn=wye kv=0.1270 pf=1 pmpp=1.63 kva=1.63 irradiance=1 temperature=25 %cutin=20 %cutout=20 effcurve=MyEff P-TCurve=MyPvsT Daily=IRRAD_DIA TDaily=TEMP_DIA
New PVSystem.GD_eab964eba7b902c7c192585a536276fb795b34186362bf1e65a814a9b0124ff7_1 phases=1 bus1=node_415525149.1.4 conn=wye kv=0.1270 pf=1 pmpp=1.26 kva=1.26 irradiance=1 temperature=25 %cutin=20 %cutout=20 effcurve=MyEff P-TCurve=MyPvsT Daily=IRRAD_DIA TDaily=TEMP_DIA
New PVSystem.GD_eab964eba7b902c7c192585a536276fb795b34186362bf1e65a814a9b0124ff7_2 phases=1 bus1=node_415525149.2.4 conn=wye kv=0.1270 pf=1 pmpp=1.26 kva=1.26 irradiance=1 temperature=25 %cutin=20 %cutout=20 effcurve=MyEff P-TCurve=MyPvsT Daily=IRRAD_DIA TDaily=TEMP_DIA
New PVSystem.GD_eab964eba7b902c7c192585a536276fb795b34186362bf1e65a814a9b0124ff7_3 phases=1 bus1=node_415525149.3.4 conn=wye kv=0.1270 pf=1 pmpp=1.26 kva=1.26 irradiance=1 temperature=25 %cutin=20 %cutout=20 effcurve=MyEff P-TCurve=MyPvsT Daily=IRRAD_DIA TDaily=TEMP_DIA
New PVSystem.GD_224eabdbd9b559c40ed73905071a5c7bd8584ec6dbdd1dc6db7929d9cdd2e16f_1 phases=1 bus1=node_415525149.1.4 conn=wye kv=0.1270 pf=1 pmpp=1.05 kva=1.05 irradiance=1 temperature=25 %cutin=20 %cutout=20 effcurve=MyEff P-TCurve=MyPvsT Daily=IRRAD_DIA TDaily=TEMP_DIA
New PVSystem.GD_224eabdbd9b559c40ed73905071a5c7bd8584ec6dbdd1dc6db7929d9cdd2e16f_2 phases=1 bus1=node_415525149.2.4 conn=wye kv=0.1270 pf=1 pmpp=1.05 kva=1.05 irradiance=1 temperature=25 %cutin=20 %cutout=20 effcurve=MyEff P-TCurve=MyPvsT Daily=IRRAD_DIA TDaily=TEMP_DIA
New PVSystem.GD_224eabdbd9b559c40ed73905071a5c7bd8584ec6dbdd1dc6db7929d9cdd2e16f_3 phases=1 bus1=node_415525149.3.4 conn=wye kv=0.1270 pf=1 pmpp=1.05 kva=1.05 irradiance=1 temperature=25 %cutin=20 %cutout=20 effcurve=MyEff P-TCurve=MyPvsT Daily=IRRAD_DIA TDaily=TEMP_DIA
New PVSystem.GD_6fefb69670109c4943138a3eef39c617d118d40966e5a0f485811c10c093ece8_1 phases=1 bus1=node_415577138.1.4 conn=wye kv=0.1270 pf=1 pmpp=0.73 kva=0.73 irradiance=1 temperature=25 %cutin=20 %cutout=20 effcurve=MyEff P-TCurve=MyPvsT Daily=IRRAD_DIA TDaily=TEMP_DIA
New PVSystem.GD_6fefb69670109c4943138a3eef39c617d118d40966e5a0f485811c10c093ece8_2 phases=1 bus1=node_415577138.2.4 conn=wye kv=0.1270 pf=1 pmpp=0.73 kva=0.73 irradiance=1 temperature=25 %cutin=20 %cutout=20 effcurve=MyEff P-TCurve=MyPvsT Daily=IRRAD_DIA TDaily=TEMP_DIA
New PVSystem.GD_6fefb69670109c4943138a3eef39c617d118d40966e5a0f485811c10c093ece8_3 phases=1 bus1=node_415577138.3.4 conn=wye kv=0.1270 pf=1 pmpp=0.73 kva=0.73 irradiance=1 temperature=25 %cutin=20 %cutout=20 effcurve=MyEff P-TCurve=MyPvsT Daily=IRRAD_DIA TDaily=TEMP_DIA
New PVSystem.GD_c7a9c76c3fe1b8799c56e0c3750719e32ed7b91c48f31734256ad6e25d50633e_1 phases=1 bus1=node_415577138.1.4 conn=wye kv=0.1270 pf=1 pmpp=2.02 kva=2.02 irradiance=1 temperature=25 %cutin=20 %cutout=20 effcurve=MyEff P-TCurve=MyPvsT Daily=IRRAD_DIA TDaily=TEMP_DIA
New PVSystem.GD_c7a9c76c3fe1b8799c56e0c3750719e32ed7b91c48f31734256ad6e25d50633e_2 phases=1 bus1=node_415577138.2.4 conn=wye kv=0.1270 pf=1 pmpp=2.02 kva=2.02 irradiance=1 temperature=25 %cutin=20 %cutout=20 effcurve=MyEff P-TCurve=MyPvsT Daily=IRRAD_DIA TDaily=TEMP_DIA
New PVSystem.GD_c7a9c76c3fe1b8799c56e0c3750719e32ed7b91c48f31734256ad6e25d50633e_3 phases=1 bus1=node_415577138.3.4 conn=wye kv=0.1270 pf=1 pmpp=2.02 kva=2.02 irradiance=1 temperature=25 %cutin=20 %cutout=20 effcurve=MyEff P-TCurve=MyPvsT Daily=IRRAD_DIA TDaily=TEMP_DIA
New PVSystem.GD_14c7e628ac2fc20df3ca80251ac358524fe8bea95390491cbb9a226aee40780d_1 phases=1 bus1=node_415577138.1.4 conn=wye kv=0.1270 pf=1 pmpp=1.59 kva=1.59 irradiance=1 temperature=25 %cutin=20 %cutout=20 effcurve=MyEff P-TCurve=MyPvsT Daily=IRRAD_DIA TDaily=TEMP_DIA
New PVSystem.GD_14c7e628ac2fc20df3ca80251ac358524fe8bea95390491cbb9a226aee40780d_2 phases=1 bus1=node_415577138.2.4 conn=wye kv=0.1270 pf=1 pmpp=1.59 kva=1.59 irradiance=1 temperature=25 %cutin=20 %cutout=20 effcurve=MyEff P-TCurve=MyPvsT Daily=IRRAD_DIA TDaily=TEMP_DIA
New PVSystem.GD_14c7e628ac2fc20df3ca80251ac358524fe8bea95390491cbb9a226aee40780d_3 phases=1 bus1=node_415577138.3.4 conn=wye kv=0.1270 pf=1 pmpp=1.59 kva=1.59 irradiance=1 temperature=25 %cutin=20 %cutout=20 effcurve=MyEff P-TCurve=MyPvsT Daily=IRRAD_DIA TDaily=TEMP_DIA
New PVSystem.GD_3a3558656de6774dbe2cce6895326315eb13bf789c0571d4f45efb71ff3b4310_1 phases=1 bus1=node_415724593.1.4 conn=wye kv=0.1270 pf=1 pmpp=0.53 kva=0.53 irradiance=1 temperature=25 %cutin=20 %cutout=20 effcurve=MyEff P-TCurve=MyPvsT Daily=IRRAD_DIA TDaily=TEMP_DIA
New PVSystem.GD_3a3558656de6774dbe2cce6895326315eb13bf789c0571d4f45efb71ff3b4310_2 phases=1 bus1=node_415724593.2.4 conn=wye kv=0.1270 pf=1 pmpp=0.53 kva=0.53 irradiance=1 temperature=25 %cutin=20 %cutout=20 effcurve=MyEff P-TCurve=MyPvsT Daily=IRRAD_DIA TDaily=TEMP_DIA
New PVSystem.GD_3a3558656de6774dbe2cce6895326315eb13bf789c0571d4f45efb71ff3b4310_3 phases=1 bus1=node_415724593.3.4 conn=wye kv=0.1270 pf=1 pmpp=0.53 kva=0.53 irradiance=1 temperature=25 %cutin=20 %cutout=20 effcurve=MyEff P-TCurve=MyPvsT Daily=IRRAD_DIA TDaily=TEMP_DIA
New PVSystem.GD_19af91bd60f963e727ae5d2abe567a39724e1d56eb18dfe52c0c53330e73564e_1 phases=1 bus1=node_415670458.1.4 conn=wye kv=0.1200 pf=1 pmpp=1.58 kva=1.58 irradiance=1 temperature=25 %cutin=20 %cutout=20 effcurve=MyEff P-TCurve=MyPvsT Daily=IRRAD_DIA TDaily=TEMP_DIA
New PVSystem.GD_19af91bd60f963e727ae5d2abe567a39724e1d56eb18dfe52c0c53330e73564e_2 phases=1 bus1=node_415670458.2.4 conn=wye kv=0.1200 pf=1 pmpp=1.58 kva=1.58 irradiance=1 temperature=25 %cutin=20 %cutout=20 effcurve=MyEff P-TCurve=MyPvsT Daily=IRRAD_DIA TDaily=TEMP_DIA
New PVSystem.GD_504310a8ed1ac21787e7e9cc702c274de694ad69f6a5aade2b05866e1b3f0877_1 phases=1 bus1=node_415575161.1.4 conn=wye kv=0.1270 pf=1 pmpp=0.40 kva=0.40 irradiance=1 temperature=25 %cutin=20 %cutout=20 effcurve=MyEff P-TCurve=MyPvsT Daily=IRRAD_DIA TDaily=TEMP_DIA
New PVSystem.GD_504310a8ed1ac21787e7e9cc702c274de694ad69f6a5aade2b05866e1b3f0877_2 phases=1 bus1=node_415575161.2.4 conn=wye kv=0.1270 pf=1 pmpp=0.40 kva=0.40 irradiance=1 temperature=25 %cutin=20 %cutout=20 effcurve=MyEff P-TCurve=MyPvsT Daily=IRRAD_DIA TDaily=TEMP_DIA
New PVSystem.GD_504310a8ed1ac21787e7e9cc702c274de694ad69f6a5aade2b05866e1b3f0877_3 phases=1 bus1=node_415575161.3.4 conn=wye kv=0.1270 pf=1 pmpp=0.40 kva=0.40 irradiance=1 temperature=25 %cutin=20 %cutout=20 effcurve=MyEff P-TCurve=MyPvsT Daily=IRRAD_DIA TDaily=TEMP_DIA
New PVSystem.GD_bf4a113b26162488d7ce6c95955ee7cb78e08ccf06cd754bac360428fd4fad7d_1 phases=1 bus1=node_415575161.1.4 conn=wye kv=0.1270 pf=1 pmpp=0.49 kva=0.49 irradiance=1 temperature=25 %cutin=20 %cutout=20 effcurve=MyEff P-TCurve=MyPvsT Daily=IRRAD_DIA TDaily=TEMP_DIA
New PVSystem.GD_bf4a113b26162488d7ce6c95955ee7cb78e08ccf06cd754bac360428fd4fad7d_2 phases=1 bus1=node_415575161.2.4 conn=wye kv=0.1270 pf=1 pmpp=0.49 kva=0.49 irradiance=1 temperature=25 %cutin=20 %cutout=20 effcurve=MyEff P-TCurve=MyPvsT Daily=IRRAD_DIA TDaily=TEMP_DIA
New PVSystem.GD_bf4a113b26162488d7ce6c95955ee7cb78e08ccf06cd754bac360428fd4fad7d_3 phases=1 bus1=node_415575161.3.4 conn=wye kv=0.1270 pf=1 pmpp=0.49 kva=0.49 irradiance=1 temperature=25 %cutin=20 %cutout=20 effcurve=MyEff P-TCurve=MyPvsT Daily=IRRAD_DIA TDaily=TEMP_DIA
New PVSystem.GD_cf460ccbc3f940032e2c0399f96fc56113caec440554896385b56bc992dbb15c_1 phases=1 bus1=node_415575161.1.4 conn=wye kv=0.1270 pf=1 pmpp=1.22 kva=1.22 irradiance=1 temperature=25 %cutin=20 %cutout=20 effcurve=MyEff P-TCurve=MyPvsT Daily=IRRAD_DIA TDaily=TEMP_DIA
New PVSystem.GD_cf460ccbc3f940032e2c0399f96fc56113caec440554896385b56bc992dbb15c_2 phases=1 bus1=node_415575161.2.4 conn=wye kv=0.1270 pf=1 pmpp=1.22 kva=1.22 irradiance=1 temperature=25 %cutin=20 %cutout=20 effcurve=MyEff P-TCurve=MyPvsT Daily=IRRAD_DIA TDaily=TEMP_DIA
New PVSystem.GD_cf460ccbc3f940032e2c0399f96fc56113caec440554896385b56bc992dbb15c_3 phases=1 bus1=node_415575161.3.4 conn=wye kv=0.1270 pf=1 pmpp=1.22 kva=1.22 irradiance=1 temperature=25 %cutin=20 %cutout=20 effcurve=MyEff P-TCurve=MyPvsT Daily=IRRAD_DIA TDaily=TEMP_DIA
New PVSystem.GD_caf75abaffb7a4e3c15c58c5f235d8ccf07f6acdee66ae23b7b2e47f4ed7f914_1 phases=1 bus1=node_415575161.1.4 conn=wye kv=0.1270 pf=1 pmpp=1.70 kva=1.70 irradiance=1 temperature=25 %cutin=20 %cutout=20 effcurve=MyEff P-TCurve=MyPvsT Daily=IRRAD_DIA TDaily=TEMP_DIA
New PVSystem.GD_caf75abaffb7a4e3c15c58c5f235d8ccf07f6acdee66ae23b7b2e47f4ed7f914_2 phases=1 bus1=node_415575161.2.4 conn=wye kv=0.1270 pf=1 pmpp=1.70 kva=1.70 irradiance=1 temperature=25 %cutin=20 %cutout=20 effcurve=MyEff P-TCurve=MyPvsT Daily=IRRAD_DIA TDaily=TEMP_DIA
New PVSystem.GD_caf75abaffb7a4e3c15c58c5f235d8ccf07f6acdee66ae23b7b2e47f4ed7f914_3 phases=1 bus1=node_415575161.3.4 conn=wye kv=0.1270 pf=1 pmpp=1.70 kva=1.70 irradiance=1 temperature=25 %cutin=20 %cutout=20 effcurve=MyEff P-TCurve=MyPvsT Daily=IRRAD_DIA TDaily=TEMP_DIA
New PVSystem.GD_afce44bac1471dbd2399b90984b41186a70d38945deff92d94f045a27eca72d2_1 phases=1 bus1=node_415575161.1.4 conn=wye kv=0.1270 pf=1 pmpp=0.32 kva=0.32 irradiance=1 temperature=25 %cutin=20 %cutout=20 effcurve=MyEff P-TCurve=MyPvsT Daily=IRRAD_DIA TDaily=TEMP_DIA
New PVSystem.GD_afce44bac1471dbd2399b90984b41186a70d38945deff92d94f045a27eca72d2_2 phases=1 bus1=node_415575161.2.4 conn=wye kv=0.1270 pf=1 pmpp=0.32 kva=0.32 irradiance=1 temperature=25 %cutin=20 %cutout=20 effcurve=MyEff P-TCurve=MyPvsT Daily=IRRAD_DIA TDaily=TEMP_DIA
New PVSystem.GD_afce44bac1471dbd2399b90984b41186a70d38945deff92d94f045a27eca72d2_3 phases=1 bus1=node_415575161.3.4 conn=wye kv=0.1270 pf=1 pmpp=0.32 kva=0.32 irradiance=1 temperature=25 %cutin=20 %cutout=20 effcurve=MyEff P-TCurve=MyPvsT Daily=IRRAD_DIA TDaily=TEMP_DIA
New PVSystem.GD_400fc766de45ed34df184cc49098a4a2d192dd5cd565ff2670fe16cfb0c0659c_1 phases=1 bus1=node_415669363.1.4 conn=wye kv=0.1270 pf=1 pmpp=1.15 kva=1.15 irradiance=1 temperature=25 %cutin=20 %cutout=20 effcurve=MyEff P-TCurve=MyPvsT Daily=IRRAD_DIA TDaily=TEMP_DIA
New PVSystem.GD_400fc766de45ed34df184cc49098a4a2d192dd5cd565ff2670fe16cfb0c0659c_2 phases=1 bus1=node_415669363.2.4 conn=wye kv=0.1270 pf=1 pmpp=1.15 kva=1.15 irradiance=1 temperature=25 %cutin=20 %cutout=20 effcurve=MyEff P-TCurve=MyPvsT Daily=IRRAD_DIA TDaily=TEMP_DIA
New PVSystem.GD_400fc766de45ed34df184cc49098a4a2d192dd5cd565ff2670fe16cfb0c0659c_3 phases=1 bus1=node_415669363.3.4 conn=wye kv=0.1270 pf=1 pmpp=1.15 kva=1.15 irradiance=1 temperature=25 %cutin=20 %cutout=20 effcurve=MyEff P-TCurve=MyPvsT Daily=IRRAD_DIA TDaily=TEMP_DIA
New PVSystem.GD_2c761760abc8d8aebda091a282aa8642b8a26b8c9e55d352c808273859b0b0c5_1 phases=1 bus1=node_416662758.1.4 conn=wye kv=0.1200 pf=1 pmpp=1.77 kva=1.77 irradiance=1 temperature=25 %cutin=20 %cutout=20 effcurve=MyEff P-TCurve=MyPvsT Daily=IRRAD_DIA TDaily=TEMP_DIA
New PVSystem.GD_2c761760abc8d8aebda091a282aa8642b8a26b8c9e55d352c808273859b0b0c5_2 phases=1 bus1=node_416662758.2.4 conn=wye kv=0.1200 pf=1 pmpp=1.77 kva=1.77 irradiance=1 temperature=25 %cutin=20 %cutout=20 effcurve=MyEff P-TCurve=MyPvsT Daily=IRRAD_DIA TDaily=TEMP_DIA
New PVSystem.GD_033dad3633ed6e6ccadb55c4bcf7e4629a87d066213e765ae21870baf0413fa7_1 phases=1 bus1=node_415577285.1.4 conn=wye kv=0.1270 pf=1 pmpp=1.32 kva=1.32 irradiance=1 temperature=25 %cutin=20 %cutout=20 effcurve=MyEff P-TCurve=MyPvsT Daily=IRRAD_DIA TDaily=TEMP_DIA
New PVSystem.GD_033dad3633ed6e6ccadb55c4bcf7e4629a87d066213e765ae21870baf0413fa7_2 phases=1 bus1=node_415577285.2.4 conn=wye kv=0.1270 pf=1 pmpp=1.32 kva=1.32 irradiance=1 temperature=25 %cutin=20 %cutout=20 effcurve=MyEff P-TCurve=MyPvsT Daily=IRRAD_DIA TDaily=TEMP_DIA
New PVSystem.GD_033dad3633ed6e6ccadb55c4bcf7e4629a87d066213e765ae21870baf0413fa7_3 phases=1 bus1=node_415577285.3.4 conn=wye kv=0.1270 pf=1 pmpp=1.32 kva=1.32 irradiance=1 temperature=25 %cutin=20 %cutout=20 effcurve=MyEff P-TCurve=MyPvsT Daily=IRRAD_DIA TDaily=TEMP_DIA
New PVSystem.GD_e6e5abea04b8cb046a0b21bfb6161c608cd2a3c5569a5bdf8e71a79803cd6d74_1 phases=1 bus1=node_415577285.1.4 conn=wye kv=0.1270 pf=1 pmpp=0.27 kva=0.27 irradiance=1 temperature=25 %cutin=20 %cutout=20 effcurve=MyEff P-TCurve=MyPvsT Daily=IRRAD_DIA TDaily=TEMP_DIA
New PVSystem.GD_e6e5abea04b8cb046a0b21bfb6161c608cd2a3c5569a5bdf8e71a79803cd6d74_2 phases=1 bus1=node_415577285.2.4 conn=wye kv=0.1270 pf=1 pmpp=0.27 kva=0.27 irradiance=1 temperature=25 %cutin=20 %cutout=20 effcurve=MyEff P-TCurve=MyPvsT Daily=IRRAD_DIA TDaily=TEMP_DIA
New PVSystem.GD_e6e5abea04b8cb046a0b21bfb6161c608cd2a3c5569a5bdf8e71a79803cd6d74_3 phases=1 bus1=node_415577285.3.4 conn=wye kv=0.1270 pf=1 pmpp=0.27 kva=0.27 irradiance=1 temperature=25 %cutin=20 %cutout=20 effcurve=MyEff P-TCurve=MyPvsT Daily=IRRAD_DIA TDaily=TEMP_DIA
New PVSystem.GD_79e14d2812da97a005ec3a0516ccdad81770b1b50cc6cfe51eb019d357e480fb_1 phases=1 bus1=node_415616780.1.4 conn=wye kv=0.1270 pf=1 pmpp=2.59 kva=2.59 irradiance=1 temperature=25 %cutin=20 %cutout=20 effcurve=MyEff P-TCurve=MyPvsT Daily=IRRAD_DIA TDaily=TEMP_DIA
New PVSystem.GD_79e14d2812da97a005ec3a0516ccdad81770b1b50cc6cfe51eb019d357e480fb_2 phases=1 bus1=node_415616780.2.4 conn=wye kv=0.1270 pf=1 pmpp=2.59 kva=2.59 irradiance=1 temperature=25 %cutin=20 %cutout=20 effcurve=MyEff P-TCurve=MyPvsT Daily=IRRAD_DIA TDaily=TEMP_DIA
New PVSystem.GD_79e14d2812da97a005ec3a0516ccdad81770b1b50cc6cfe51eb019d357e480fb_3 phases=1 bus1=node_415616780.3.4 conn=wye kv=0.1270 pf=1 pmpp=2.59 kva=2.59 irradiance=1 temperature=25 %cutin=20 %cutout=20 effcurve=MyEff P-TCurve=MyPvsT Daily=IRRAD_DIA TDaily=TEMP_DIA
New PVSystem.GD_2a28052c7dd4b2e129b7f5f341ed5b2befe207b7188d235099489febc59c056b_1 phases=1 bus1=node_415616780.1.4 conn=wye kv=0.1270 pf=1 pmpp=0.68 kva=0.68 irradiance=1 temperature=25 %cutin=20 %cutout=20 effcurve=MyEff P-TCurve=MyPvsT Daily=IRRAD_DIA TDaily=TEMP_DIA
New PVSystem.GD_2a28052c7dd4b2e129b7f5f341ed5b2befe207b7188d235099489febc59c056b_2 phases=1 bus1=node_415616780.2.4 conn=wye kv=0.1270 pf=1 pmpp=0.68 kva=0.68 irradiance=1 temperature=25 %cutin=20 %cutout=20 effcurve=MyEff P-TCurve=MyPvsT Daily=IRRAD_DIA TDaily=TEMP_DIA
New PVSystem.GD_2a28052c7dd4b2e129b7f5f341ed5b2befe207b7188d235099489febc59c056b_3 phases=1 bus1=node_415616780.3.4 conn=wye kv=0.1270 pf=1 pmpp=0.68 kva=0.68 irradiance=1 temperature=25 %cutin=20 %cutout=20 effcurve=MyEff P-TCurve=MyPvsT Daily=IRRAD_DIA TDaily=TEMP_DIA
New PVSystem.GD_ccda8cdddabafe26fbc8a3da2de9b6323bd4ff2ebc35fb7fa5c6459bdec2cf57_1 phases=1 bus1=node_415616780.1.4 conn=wye kv=0.1270 pf=1 pmpp=0.68 kva=0.68 irradiance=1 temperature=25 %cutin=20 %cutout=20 effcurve=MyEff P-TCurve=MyPvsT Daily=IRRAD_DIA TDaily=TEMP_DIA
New PVSystem.GD_ccda8cdddabafe26fbc8a3da2de9b6323bd4ff2ebc35fb7fa5c6459bdec2cf57_2 phases=1 bus1=node_415616780.2.4 conn=wye kv=0.1270 pf=1 pmpp=0.68 kva=0.68 irradiance=1 temperature=25 %cutin=20 %cutout=20 effcurve=MyEff P-TCurve=MyPvsT Daily=IRRAD_DIA TDaily=TEMP_DIA
New PVSystem.GD_ccda8cdddabafe26fbc8a3da2de9b6323bd4ff2ebc35fb7fa5c6459bdec2cf57_3 phases=1 bus1=node_415616780.3.4 conn=wye kv=0.1270 pf=1 pmpp=0.68 kva=0.68 irradiance=1 temperature=25 %cutin=20 %cutout=20 effcurve=MyEff P-TCurve=MyPvsT Daily=IRRAD_DIA TDaily=TEMP_DIA
New PVSystem.GD_ad5f3da172cedb1fd0d0e9b80c7f35e9ca44e57f7f16a77ea62a85b9bd86a4f9_1 phases=1 bus1=node_415616780.1.4 conn=wye kv=0.1270 pf=1 pmpp=0.96 kva=0.96 irradiance=1 temperature=25 %cutin=20 %cutout=20 effcurve=MyEff P-TCurve=MyPvsT Daily=IRRAD_DIA TDaily=TEMP_DIA
New PVSystem.GD_ad5f3da172cedb1fd0d0e9b80c7f35e9ca44e57f7f16a77ea62a85b9bd86a4f9_2 phases=1 bus1=node_415616780.2.4 conn=wye kv=0.1270 pf=1 pmpp=0.96 kva=0.96 irradiance=1 temperature=25 %cutin=20 %cutout=20 effcurve=MyEff P-TCurve=MyPvsT Daily=IRRAD_DIA TDaily=TEMP_DIA
New PVSystem.GD_ad5f3da172cedb1fd0d0e9b80c7f35e9ca44e57f7f16a77ea62a85b9bd86a4f9_3 phases=1 bus1=node_415616780.3.4 conn=wye kv=0.1270 pf=1 pmpp=0.96 kva=0.96 irradiance=1 temperature=25 %cutin=20 %cutout=20 effcurve=MyEff P-TCurve=MyPvsT Daily=IRRAD_DIA TDaily=TEMP_DIA
New PVSystem.GD_ce5c9bc2b39ceb8a54ea8134c1007b26f859ded1c008f101994401ed00e0f93d_1 phases=1 bus1=node_415573382.1.4 conn=wye kv=0.1270 pf=1 pmpp=1.10 kva=1.10 irradiance=1 temperature=25 %cutin=20 %cutout=20 effcurve=MyEff P-TCurve=MyPvsT Daily=IRRAD_DIA TDaily=TEMP_DIA
New PVSystem.GD_ce5c9bc2b39ceb8a54ea8134c1007b26f859ded1c008f101994401ed00e0f93d_2 phases=1 bus1=node_415573382.2.4 conn=wye kv=0.1270 pf=1 pmpp=1.10 kva=1.10 irradiance=1 temperature=25 %cutin=20 %cutout=20 effcurve=MyEff P-TCurve=MyPvsT Daily=IRRAD_DIA TDaily=TEMP_DIA
New PVSystem.GD_ce5c9bc2b39ceb8a54ea8134c1007b26f859ded1c008f101994401ed00e0f93d_3 phases=1 bus1=node_415573382.3.4 conn=wye kv=0.1270 pf=1 pmpp=1.10 kva=1.10 irradiance=1 temperature=25 %cutin=20 %cutout=20 effcurve=MyEff P-TCurve=MyPvsT Daily=IRRAD_DIA TDaily=TEMP_DIA
New PVSystem.GD_7aeacdaea75fdf031cb2eda7de3917e5635f423d720e7f9704689a5ee93a6b1a_1 phases=1 bus1=node_415573382.1.4 conn=wye kv=0.1270 pf=1 pmpp=1.36 kva=1.36 irradiance=1 temperature=25 %cutin=20 %cutout=20 effcurve=MyEff P-TCurve=MyPvsT Daily=IRRAD_DIA TDaily=TEMP_DIA
New PVSystem.GD_7aeacdaea75fdf031cb2eda7de3917e5635f423d720e7f9704689a5ee93a6b1a_2 phases=1 bus1=node_415573382.2.4 conn=wye kv=0.1270 pf=1 pmpp=1.36 kva=1.36 irradiance=1 temperature=25 %cutin=20 %cutout=20 effcurve=MyEff P-TCurve=MyPvsT Daily=IRRAD_DIA TDaily=TEMP_DIA
New PVSystem.GD_7aeacdaea75fdf031cb2eda7de3917e5635f423d720e7f9704689a5ee93a6b1a_3 phases=1 bus1=node_415573382.3.4 conn=wye kv=0.1270 pf=1 pmpp=1.36 kva=1.36 irradiance=1 temperature=25 %cutin=20 %cutout=20 effcurve=MyEff P-TCurve=MyPvsT Daily=IRRAD_DIA TDaily=TEMP_DIA
New PVSystem.GD_4074ba393cbe782cdc30430a398b7d15b7bff95f7f9c95a63085b3c088432e50_1 phases=1 bus1=node_415573382.1.4 conn=wye kv=0.1270 pf=1 pmpp=2.54 kva=2.54 irradiance=1 temperature=25 %cutin=20 %cutout=20 effcurve=MyEff P-TCurve=MyPvsT Daily=IRRAD_DIA TDaily=TEMP_DIA
New PVSystem.GD_4074ba393cbe782cdc30430a398b7d15b7bff95f7f9c95a63085b3c088432e50_2 phases=1 bus1=node_415573382.2.4 conn=wye kv=0.1270 pf=1 pmpp=2.54 kva=2.54 irradiance=1 temperature=25 %cutin=20 %cutout=20 effcurve=MyEff P-TCurve=MyPvsT Daily=IRRAD_DIA TDaily=TEMP_DIA
New PVSystem.GD_4074ba393cbe782cdc30430a398b7d15b7bff95f7f9c95a63085b3c088432e50_3 phases=1 bus1=node_415573382.3.4 conn=wye kv=0.1270 pf=1 pmpp=2.54 kva=2.54 irradiance=1 temperature=25 %cutin=20 %cutout=20 effcurve=MyEff P-TCurve=MyPvsT Daily=IRRAD_DIA TDaily=TEMP_DIA
New PVSystem.GD_bb1e0af4a982305ce7cb4e3f0fa7031537d2e12856d98d116d39fb5ac3af7593_1 phases=1 bus1=node_415573382.1.4 conn=wye kv=0.1270 pf=1 pmpp=1.19 kva=1.19 irradiance=1 temperature=25 %cutin=20 %cutout=20 effcurve=MyEff P-TCurve=MyPvsT Daily=IRRAD_DIA TDaily=TEMP_DIA
New PVSystem.GD_bb1e0af4a982305ce7cb4e3f0fa7031537d2e12856d98d116d39fb5ac3af7593_2 phases=1 bus1=node_415573382.2.4 conn=wye kv=0.1270 pf=1 pmpp=1.19 kva=1.19 irradiance=1 temperature=25 %cutin=20 %cutout=20 effcurve=MyEff P-TCurve=MyPvsT Daily=IRRAD_DIA TDaily=TEMP_DIA
New PVSystem.GD_bb1e0af4a982305ce7cb4e3f0fa7031537d2e12856d98d116d39fb5ac3af7593_3 phases=1 bus1=node_415573382.3.4 conn=wye kv=0.1270 pf=1 pmpp=1.19 kva=1.19 irradiance=1 temperature=25 %cutin=20 %cutout=20 effcurve=MyEff P-TCurve=MyPvsT Daily=IRRAD_DIA TDaily=TEMP_DIA
New PVSystem.GD_4579d17535cd88c4446ab0a635303a4b83b0c7f108f1fbc7c20c5328252f2e9d_1 phases=1 bus1=node_415525593.1.4 conn=wye kv=0.1270 pf=1 pmpp=2.46 kva=2.46 irradiance=1 temperature=25 %cutin=20 %cutout=20 effcurve=MyEff P-TCurve=MyPvsT Daily=IRRAD_DIA TDaily=TEMP_DIA
New PVSystem.GD_4579d17535cd88c4446ab0a635303a4b83b0c7f108f1fbc7c20c5328252f2e9d_2 phases=1 bus1=node_415525593.2.4 conn=wye kv=0.1270 pf=1 pmpp=2.46 kva=2.46 irradiance=1 temperature=25 %cutin=20 %cutout=20 effcurve=MyEff P-TCurve=MyPvsT Daily=IRRAD_DIA TDaily=TEMP_DIA
New PVSystem.GD_4579d17535cd88c4446ab0a635303a4b83b0c7f108f1fbc7c20c5328252f2e9d_3 phases=1 bus1=node_415525593.3.4 conn=wye kv=0.1270 pf=1 pmpp=2.46 kva=2.46 irradiance=1 temperature=25 %cutin=20 %cutout=20 effcurve=MyEff P-TCurve=MyPvsT Daily=IRRAD_DIA TDaily=TEMP_DIA
New PVSystem.GD_b96b00c0f4b2f64298dba487834a7cc1086b541901182d493fdb1980a7187a1c_1 phases=1 bus1=node_415525593.1.4 conn=wye kv=0.1270 pf=1 pmpp=0.49 kva=0.49 irradiance=1 temperature=25 %cutin=20 %cutout=20 effcurve=MyEff P-TCurve=MyPvsT Daily=IRRAD_DIA TDaily=TEMP_DIA
New PVSystem.GD_b96b00c0f4b2f64298dba487834a7cc1086b541901182d493fdb1980a7187a1c_2 phases=1 bus1=node_415525593.2.4 conn=wye kv=0.1270 pf=1 pmpp=0.49 kva=0.49 irradiance=1 temperature=25 %cutin=20 %cutout=20 effcurve=MyEff P-TCurve=MyPvsT Daily=IRRAD_DIA TDaily=TEMP_DIA
New PVSystem.GD_b96b00c0f4b2f64298dba487834a7cc1086b541901182d493fdb1980a7187a1c_3 phases=1 bus1=node_415525593.3.4 conn=wye kv=0.1270 pf=1 pmpp=0.49 kva=0.49 irradiance=1 temperature=25 %cutin=20 %cutout=20 effcurve=MyEff P-TCurve=MyPvsT Daily=IRRAD_DIA TDaily=TEMP_DIA
New PVSystem.GD_bd0bc6c9d771fbcf1c797be411dcc6616f57333a5c182758176393c94e2a18d8_1 phases=1 bus1=node_415525593.1.4 conn=wye kv=0.1270 pf=1 pmpp=1.92 kva=1.92 irradiance=1 temperature=25 %cutin=20 %cutout=20 effcurve=MyEff P-TCurve=MyPvsT Daily=IRRAD_DIA TDaily=TEMP_DIA
New PVSystem.GD_bd0bc6c9d771fbcf1c797be411dcc6616f57333a5c182758176393c94e2a18d8_2 phases=1 bus1=node_415525593.2.4 conn=wye kv=0.1270 pf=1 pmpp=1.92 kva=1.92 irradiance=1 temperature=25 %cutin=20 %cutout=20 effcurve=MyEff P-TCurve=MyPvsT Daily=IRRAD_DIA TDaily=TEMP_DIA
New PVSystem.GD_bd0bc6c9d771fbcf1c797be411dcc6616f57333a5c182758176393c94e2a18d8_3 phases=1 bus1=node_415525593.3.4 conn=wye kv=0.1270 pf=1 pmpp=1.92 kva=1.92 irradiance=1 temperature=25 %cutin=20 %cutout=20 effcurve=MyEff P-TCurve=MyPvsT Daily=IRRAD_DIA TDaily=TEMP_DIA
New PVSystem.GD_1d350691ddec6d2be9b37a9f7d5f9a17ca64f3e474032eb696603c5272fd8127_1 phases=1 bus1=node_415525593.1.4 conn=wye kv=0.1270 pf=1 pmpp=1.24 kva=1.24 irradiance=1 temperature=25 %cutin=20 %cutout=20 effcurve=MyEff P-TCurve=MyPvsT Daily=IRRAD_DIA TDaily=TEMP_DIA
New PVSystem.GD_1d350691ddec6d2be9b37a9f7d5f9a17ca64f3e474032eb696603c5272fd8127_2 phases=1 bus1=node_415525593.2.4 conn=wye kv=0.1270 pf=1 pmpp=1.24 kva=1.24 irradiance=1 temperature=25 %cutin=20 %cutout=20 effcurve=MyEff P-TCurve=MyPvsT Daily=IRRAD_DIA TDaily=TEMP_DIA
New PVSystem.GD_1d350691ddec6d2be9b37a9f7d5f9a17ca64f3e474032eb696603c5272fd8127_3 phases=1 bus1=node_415525593.3.4 conn=wye kv=0.1270 pf=1 pmpp=1.24 kva=1.24 irradiance=1 temperature=25 %cutin=20 %cutout=20 effcurve=MyEff P-TCurve=MyPvsT Daily=IRRAD_DIA TDaily=TEMP_DIA
New PVSystem.GD_ae6d1f32133f861bfa62c1cf09fc5bff89449a126a6d573742365fc83ea3d445_1 phases=1 bus1=node_415670491.1.4 conn=wye kv=0.1270 pf=1 pmpp=1.15 kva=1.15 irradiance=1 temperature=25 %cutin=20 %cutout=20 effcurve=MyEff P-TCurve=MyPvsT Daily=IRRAD_DIA TDaily=TEMP_DIA
New PVSystem.GD_ae6d1f32133f861bfa62c1cf09fc5bff89449a126a6d573742365fc83ea3d445_2 phases=1 bus1=node_415670491.2.4 conn=wye kv=0.1270 pf=1 pmpp=1.15 kva=1.15 irradiance=1 temperature=25 %cutin=20 %cutout=20 effcurve=MyEff P-TCurve=MyPvsT Daily=IRRAD_DIA TDaily=TEMP_DIA
New PVSystem.GD_ae6d1f32133f861bfa62c1cf09fc5bff89449a126a6d573742365fc83ea3d445_3 phases=1 bus1=node_415670491.3.4 conn=wye kv=0.1270 pf=1 pmpp=1.15 kva=1.15 irradiance=1 temperature=25 %cutin=20 %cutout=20 effcurve=MyEff P-TCurve=MyPvsT Daily=IRRAD_DIA TDaily=TEMP_DIA
New PVSystem.GD_e46abf99fe255f0116aa95895a0dd71911b116b0bba2659192d40f1a2c7a8e3c_1 phases=1 bus1=node_415525581.1.4 conn=wye kv=0.1270 pf=1 pmpp=0.42 kva=0.42 irradiance=1 temperature=25 %cutin=20 %cutout=20 effcurve=MyEff P-TCurve=MyPvsT Daily=IRRAD_DIA TDaily=TEMP_DIA
New PVSystem.GD_e46abf99fe255f0116aa95895a0dd71911b116b0bba2659192d40f1a2c7a8e3c_2 phases=1 bus1=node_415525581.2.4 conn=wye kv=0.1270 pf=1 pmpp=0.42 kva=0.42 irradiance=1 temperature=25 %cutin=20 %cutout=20 effcurve=MyEff P-TCurve=MyPvsT Daily=IRRAD_DIA TDaily=TEMP_DIA
New PVSystem.GD_e46abf99fe255f0116aa95895a0dd71911b116b0bba2659192d40f1a2c7a8e3c_3 phases=1 bus1=node_415525581.3.4 conn=wye kv=0.1270 pf=1 pmpp=0.42 kva=0.42 irradiance=1 temperature=25 %cutin=20 %cutout=20 effcurve=MyEff P-TCurve=MyPvsT Daily=IRRAD_DIA TDaily=TEMP_DIA
New PVSystem.GD_7c3ffed603ce57bc4c7901de907f5ce08d4ec1228815d04254ff3006380e5148_1 phases=1 bus1=node_415525581.1.4 conn=wye kv=0.1270 pf=1 pmpp=1.83 kva=1.83 irradiance=1 temperature=25 %cutin=20 %cutout=20 effcurve=MyEff P-TCurve=MyPvsT Daily=IRRAD_DIA TDaily=TEMP_DIA
New PVSystem.GD_7c3ffed603ce57bc4c7901de907f5ce08d4ec1228815d04254ff3006380e5148_2 phases=1 bus1=node_415525581.2.4 conn=wye kv=0.1270 pf=1 pmpp=1.83 kva=1.83 irradiance=1 temperature=25 %cutin=20 %cutout=20 effcurve=MyEff P-TCurve=MyPvsT Daily=IRRAD_DIA TDaily=TEMP_DIA
New PVSystem.GD_7c3ffed603ce57bc4c7901de907f5ce08d4ec1228815d04254ff3006380e5148_3 phases=1 bus1=node_415525581.3.4 conn=wye kv=0.1270 pf=1 pmpp=1.83 kva=1.83 irradiance=1 temperature=25 %cutin=20 %cutout=20 effcurve=MyEff P-TCurve=MyPvsT Daily=IRRAD_DIA TDaily=TEMP_DIA
New PVSystem.GD_92d3d552e857bc23c208798e08fa5096791588a66089dba952b975c5da00e16f_1 phases=1 bus1=node_415525581.1.4 conn=wye kv=0.1270 pf=1 pmpp=0.55 kva=0.55 irradiance=1 temperature=25 %cutin=20 %cutout=20 effcurve=MyEff P-TCurve=MyPvsT Daily=IRRAD_DIA TDaily=TEMP_DIA
New PVSystem.GD_92d3d552e857bc23c208798e08fa5096791588a66089dba952b975c5da00e16f_2 phases=1 bus1=node_415525581.2.4 conn=wye kv=0.1270 pf=1 pmpp=0.55 kva=0.55 irradiance=1 temperature=25 %cutin=20 %cutout=20 effcurve=MyEff P-TCurve=MyPvsT Daily=IRRAD_DIA TDaily=TEMP_DIA
New PVSystem.GD_92d3d552e857bc23c208798e08fa5096791588a66089dba952b975c5da00e16f_3 phases=1 bus1=node_415525581.3.4 conn=wye kv=0.1270 pf=1 pmpp=0.55 kva=0.55 irradiance=1 temperature=25 %cutin=20 %cutout=20 effcurve=MyEff P-TCurve=MyPvsT Daily=IRRAD_DIA TDaily=TEMP_DIA
New PVSystem.GD_425a3ab15b1a9170de09308fb5a7867bab44d21ccbbd63abd31801aa1d27939c_1 phases=1 bus1=node_415525581.1.4 conn=wye kv=0.1270 pf=1 pmpp=1.59 kva=1.59 irradiance=1 temperature=25 %cutin=20 %cutout=20 effcurve=MyEff P-TCurve=MyPvsT Daily=IRRAD_DIA TDaily=TEMP_DIA
New PVSystem.GD_425a3ab15b1a9170de09308fb5a7867bab44d21ccbbd63abd31801aa1d27939c_2 phases=1 bus1=node_415525581.2.4 conn=wye kv=0.1270 pf=1 pmpp=1.59 kva=1.59 irradiance=1 temperature=25 %cutin=20 %cutout=20 effcurve=MyEff P-TCurve=MyPvsT Daily=IRRAD_DIA TDaily=TEMP_DIA
New PVSystem.GD_425a3ab15b1a9170de09308fb5a7867bab44d21ccbbd63abd31801aa1d27939c_3 phases=1 bus1=node_415525581.3.4 conn=wye kv=0.1270 pf=1 pmpp=1.59 kva=1.59 irradiance=1 temperature=25 %cutin=20 %cutout=20 effcurve=MyEff P-TCurve=MyPvsT Daily=IRRAD_DIA TDaily=TEMP_DIA
New PVSystem.GD_da3b3ee2f6b8eb6b1227a19c738778c6be1e4b949302d3cee31063f147328a01_1 phases=1 bus1=node_415525581.1.4 conn=wye kv=0.1270 pf=1 pmpp=0.61 kva=0.61 irradiance=1 temperature=25 %cutin=20 %cutout=20 effcurve=MyEff P-TCurve=MyPvsT Daily=IRRAD_DIA TDaily=TEMP_DIA
New PVSystem.GD_da3b3ee2f6b8eb6b1227a19c738778c6be1e4b949302d3cee31063f147328a01_2 phases=1 bus1=node_415525581.2.4 conn=wye kv=0.1270 pf=1 pmpp=0.61 kva=0.61 irradiance=1 temperature=25 %cutin=20 %cutout=20 effcurve=MyEff P-TCurve=MyPvsT Daily=IRRAD_DIA TDaily=TEMP_DIA
New PVSystem.GD_da3b3ee2f6b8eb6b1227a19c738778c6be1e4b949302d3cee31063f147328a01_3 phases=1 bus1=node_415525581.3.4 conn=wye kv=0.1270 pf=1 pmpp=0.61 kva=0.61 irradiance=1 temperature=25 %cutin=20 %cutout=20 effcurve=MyEff P-TCurve=MyPvsT Daily=IRRAD_DIA TDaily=TEMP_DIA
New PVSystem.GD_625281f3833e5b37006b57be63d2152c19c9398cf62e3d721bf76da89fd49b11_1 phases=1 bus1=node_415525581.1.4 conn=wye kv=0.1270 pf=1 pmpp=0.48 kva=0.48 irradiance=1 temperature=25 %cutin=20 %cutout=20 effcurve=MyEff P-TCurve=MyPvsT Daily=IRRAD_DIA TDaily=TEMP_DIA
New PVSystem.GD_625281f3833e5b37006b57be63d2152c19c9398cf62e3d721bf76da89fd49b11_2 phases=1 bus1=node_415525581.2.4 conn=wye kv=0.1270 pf=1 pmpp=0.48 kva=0.48 irradiance=1 temperature=25 %cutin=20 %cutout=20 effcurve=MyEff P-TCurve=MyPvsT Daily=IRRAD_DIA TDaily=TEMP_DIA
New PVSystem.GD_625281f3833e5b37006b57be63d2152c19c9398cf62e3d721bf76da89fd49b11_3 phases=1 bus1=node_415525581.3.4 conn=wye kv=0.1270 pf=1 pmpp=0.48 kva=0.48 irradiance=1 temperature=25 %cutin=20 %cutout=20 effcurve=MyEff P-TCurve=MyPvsT Daily=IRRAD_DIA TDaily=TEMP_DIA
New PVSystem.GD_53402f01b9417471c91c4934e79834e26a710eb6d85965670b56d09383364ee0_1 phases=1 bus1=node_415525581.1.4 conn=wye kv=0.1270 pf=1 pmpp=0.49 kva=0.49 irradiance=1 temperature=25 %cutin=20 %cutout=20 effcurve=MyEff P-TCurve=MyPvsT Daily=IRRAD_DIA TDaily=TEMP_DIA
New PVSystem.GD_53402f01b9417471c91c4934e79834e26a710eb6d85965670b56d09383364ee0_2 phases=1 bus1=node_415525581.2.4 conn=wye kv=0.1270 pf=1 pmpp=0.49 kva=0.49 irradiance=1 temperature=25 %cutin=20 %cutout=20 effcurve=MyEff P-TCurve=MyPvsT Daily=IRRAD_DIA TDaily=TEMP_DIA
New PVSystem.GD_53402f01b9417471c91c4934e79834e26a710eb6d85965670b56d09383364ee0_3 phases=1 bus1=node_415525581.3.4 conn=wye kv=0.1270 pf=1 pmpp=0.49 kva=0.49 irradiance=1 temperature=25 %cutin=20 %cutout=20 effcurve=MyEff P-TCurve=MyPvsT Daily=IRRAD_DIA TDaily=TEMP_DIA
New PVSystem.GD_bcc3f4f1c09801b32e11b89b50166e2efc4fe361b9ce13816bd6d89a122d369b_1 phases=1 bus1=node_415525581.1.4 conn=wye kv=0.1270 pf=1 pmpp=0.73 kva=0.73 irradiance=1 temperature=25 %cutin=20 %cutout=20 effcurve=MyEff P-TCurve=MyPvsT Daily=IRRAD_DIA TDaily=TEMP_DIA
New PVSystem.GD_bcc3f4f1c09801b32e11b89b50166e2efc4fe361b9ce13816bd6d89a122d369b_2 phases=1 bus1=node_415525581.2.4 conn=wye kv=0.1270 pf=1 pmpp=0.73 kva=0.73 irradiance=1 temperature=25 %cutin=20 %cutout=20 effcurve=MyEff P-TCurve=MyPvsT Daily=IRRAD_DIA TDaily=TEMP_DIA
New PVSystem.GD_bcc3f4f1c09801b32e11b89b50166e2efc4fe361b9ce13816bd6d89a122d369b_3 phases=1 bus1=node_415525581.3.4 conn=wye kv=0.1270 pf=1 pmpp=0.73 kva=0.73 irradiance=1 temperature=25 %cutin=20 %cutout=20 effcurve=MyEff P-TCurve=MyPvsT Daily=IRRAD_DIA TDaily=TEMP_DIA
New PVSystem.GD_b867fccef875c47afe5bc4ef8f7c5402e055edd4bde6c7df5fa330e38d677d9d_1 phases=1 bus1=node_415523190.1.4 conn=wye kv=0.1270 pf=1 pmpp=0.48 kva=0.48 irradiance=1 temperature=25 %cutin=20 %cutout=20 effcurve=MyEff P-TCurve=MyPvsT Daily=IRRAD_DIA TDaily=TEMP_DIA
New PVSystem.GD_b867fccef875c47afe5bc4ef8f7c5402e055edd4bde6c7df5fa330e38d677d9d_2 phases=1 bus1=node_415523190.2.4 conn=wye kv=0.1270 pf=1 pmpp=0.48 kva=0.48 irradiance=1 temperature=25 %cutin=20 %cutout=20 effcurve=MyEff P-TCurve=MyPvsT Daily=IRRAD_DIA TDaily=TEMP_DIA
New PVSystem.GD_b867fccef875c47afe5bc4ef8f7c5402e055edd4bde6c7df5fa330e38d677d9d_3 phases=1 bus1=node_415523190.3.4 conn=wye kv=0.1270 pf=1 pmpp=0.48 kva=0.48 irradiance=1 temperature=25 %cutin=20 %cutout=20 effcurve=MyEff P-TCurve=MyPvsT Daily=IRRAD_DIA TDaily=TEMP_DIA
New PVSystem.GD_7b553a3adc64e6b14dfd0d7888f9e050c3df1e9ed720b2cae1cd67ee1ca57f1e_1 phases=1 bus1=node_415523190.1.4 conn=wye kv=0.1270 pf=1 pmpp=0.12 kva=0.12 irradiance=1 temperature=25 %cutin=20 %cutout=20 effcurve=MyEff P-TCurve=MyPvsT Daily=IRRAD_DIA TDaily=TEMP_DIA
New PVSystem.GD_7b553a3adc64e6b14dfd0d7888f9e050c3df1e9ed720b2cae1cd67ee1ca57f1e_2 phases=1 bus1=node_415523190.2.4 conn=wye kv=0.1270 pf=1 pmpp=0.12 kva=0.12 irradiance=1 temperature=25 %cutin=20 %cutout=20 effcurve=MyEff P-TCurve=MyPvsT Daily=IRRAD_DIA TDaily=TEMP_DIA
New PVSystem.GD_7b553a3adc64e6b14dfd0d7888f9e050c3df1e9ed720b2cae1cd67ee1ca57f1e_3 phases=1 bus1=node_415523190.3.4 conn=wye kv=0.1270 pf=1 pmpp=0.12 kva=0.12 irradiance=1 temperature=25 %cutin=20 %cutout=20 effcurve=MyEff P-TCurve=MyPvsT Daily=IRRAD_DIA TDaily=TEMP_DIA
New PVSystem.GD_1e8640b20e8be81074aa131513878251db662da5b646e33f84a23dbffc8f1f79_1 phases=1 bus1=node_415523190.1.4 conn=wye kv=0.1270 pf=1 pmpp=1.27 kva=1.27 irradiance=1 temperature=25 %cutin=20 %cutout=20 effcurve=MyEff P-TCurve=MyPvsT Daily=IRRAD_DIA TDaily=TEMP_DIA
New PVSystem.GD_1e8640b20e8be81074aa131513878251db662da5b646e33f84a23dbffc8f1f79_2 phases=1 bus1=node_415523190.2.4 conn=wye kv=0.1270 pf=1 pmpp=1.27 kva=1.27 irradiance=1 temperature=25 %cutin=20 %cutout=20 effcurve=MyEff P-TCurve=MyPvsT Daily=IRRAD_DIA TDaily=TEMP_DIA
New PVSystem.GD_1e8640b20e8be81074aa131513878251db662da5b646e33f84a23dbffc8f1f79_3 phases=1 bus1=node_415523190.3.4 conn=wye kv=0.1270 pf=1 pmpp=1.27 kva=1.27 irradiance=1 temperature=25 %cutin=20 %cutout=20 effcurve=MyEff P-TCurve=MyPvsT Daily=IRRAD_DIA TDaily=TEMP_DIA
New PVSystem.GD_cb6bc15c6438e2083982a2f797dac530c5808522afa8ab57582714a55296a3c9_1 phases=1 bus1=node_415523190.1.4 conn=wye kv=0.1270 pf=1 pmpp=0.53 kva=0.53 irradiance=1 temperature=25 %cutin=20 %cutout=20 effcurve=MyEff P-TCurve=MyPvsT Daily=IRRAD_DIA TDaily=TEMP_DIA
New PVSystem.GD_cb6bc15c6438e2083982a2f797dac530c5808522afa8ab57582714a55296a3c9_2 phases=1 bus1=node_415523190.2.4 conn=wye kv=0.1270 pf=1 pmpp=0.53 kva=0.53 irradiance=1 temperature=25 %cutin=20 %cutout=20 effcurve=MyEff P-TCurve=MyPvsT Daily=IRRAD_DIA TDaily=TEMP_DIA
New PVSystem.GD_cb6bc15c6438e2083982a2f797dac530c5808522afa8ab57582714a55296a3c9_3 phases=1 bus1=node_415523190.3.4 conn=wye kv=0.1270 pf=1 pmpp=0.53 kva=0.53 irradiance=1 temperature=25 %cutin=20 %cutout=20 effcurve=MyEff P-TCurve=MyPvsT Daily=IRRAD_DIA TDaily=TEMP_DIA
New PVSystem.GD_b3b9d014a6c9656a05954f401c2361c71bf678d78ea594f8cb014ec99c5d6b2c_1 phases=1 bus1=node_415525089.1.4 conn=wye kv=0.1270 pf=1 pmpp=0.28 kva=0.28 irradiance=1 temperature=25 %cutin=20 %cutout=20 effcurve=MyEff P-TCurve=MyPvsT Daily=IRRAD_DIA TDaily=TEMP_DIA
New PVSystem.GD_b3b9d014a6c9656a05954f401c2361c71bf678d78ea594f8cb014ec99c5d6b2c_2 phases=1 bus1=node_415525089.2.4 conn=wye kv=0.1270 pf=1 pmpp=0.28 kva=0.28 irradiance=1 temperature=25 %cutin=20 %cutout=20 effcurve=MyEff P-TCurve=MyPvsT Daily=IRRAD_DIA TDaily=TEMP_DIA
New PVSystem.GD_b3b9d014a6c9656a05954f401c2361c71bf678d78ea594f8cb014ec99c5d6b2c_3 phases=1 bus1=node_415525089.3.4 conn=wye kv=0.1270 pf=1 pmpp=0.28 kva=0.28 irradiance=1 temperature=25 %cutin=20 %cutout=20 effcurve=MyEff P-TCurve=MyPvsT Daily=IRRAD_DIA TDaily=TEMP_DIA
New PVSystem.GD_3b6f8eadecb89d3069bae5ff13eb0672e712164da12a20c1613a418c1b0d118d_1 phases=1 bus1=node_415670143.1.4 conn=wye kv=0.1200 pf=1 pmpp=0.82 kva=0.82 irradiance=1 temperature=25 %cutin=20 %cutout=20 effcurve=MyEff P-TCurve=MyPvsT Daily=IRRAD_DIA TDaily=TEMP_DIA
New PVSystem.GD_3b6f8eadecb89d3069bae5ff13eb0672e712164da12a20c1613a418c1b0d118d_2 phases=1 bus1=node_415670143.2.4 conn=wye kv=0.1200 pf=1 pmpp=0.82 kva=0.82 irradiance=1 temperature=25 %cutin=20 %cutout=20 effcurve=MyEff P-TCurve=MyPvsT Daily=IRRAD_DIA TDaily=TEMP_DIA
New PVSystem.GD_fea48df9ca2c1f63f58fb9a205e45c085c75ede1b55344403654efd097526c36_1 phases=1 bus1=node_415525140.1.4 conn=wye kv=0.1270 pf=1 pmpp=0.24 kva=0.24 irradiance=1 temperature=25 %cutin=20 %cutout=20 effcurve=MyEff P-TCurve=MyPvsT Daily=IRRAD_DIA TDaily=TEMP_DIA
New PVSystem.GD_fea48df9ca2c1f63f58fb9a205e45c085c75ede1b55344403654efd097526c36_2 phases=1 bus1=node_415525140.2.4 conn=wye kv=0.1270 pf=1 pmpp=0.24 kva=0.24 irradiance=1 temperature=25 %cutin=20 %cutout=20 effcurve=MyEff P-TCurve=MyPvsT Daily=IRRAD_DIA TDaily=TEMP_DIA
New PVSystem.GD_fea48df9ca2c1f63f58fb9a205e45c085c75ede1b55344403654efd097526c36_3 phases=1 bus1=node_415525140.3.4 conn=wye kv=0.1270 pf=1 pmpp=0.24 kva=0.24 irradiance=1 temperature=25 %cutin=20 %cutout=20 effcurve=MyEff P-TCurve=MyPvsT Daily=IRRAD_DIA TDaily=TEMP_DIA
New PVSystem.GD_f0cf08b7c3333631daf3ec05188f98331d265dfaf49f3d8d7df233511970cd49_1 phases=1 bus1=node_415525140.1.4 conn=wye kv=0.1270 pf=1 pmpp=1.11 kva=1.11 irradiance=1 temperature=25 %cutin=20 %cutout=20 effcurve=MyEff P-TCurve=MyPvsT Daily=IRRAD_DIA TDaily=TEMP_DIA
New PVSystem.GD_f0cf08b7c3333631daf3ec05188f98331d265dfaf49f3d8d7df233511970cd49_2 phases=1 bus1=node_415525140.2.4 conn=wye kv=0.1270 pf=1 pmpp=1.11 kva=1.11 irradiance=1 temperature=25 %cutin=20 %cutout=20 effcurve=MyEff P-TCurve=MyPvsT Daily=IRRAD_DIA TDaily=TEMP_DIA
New PVSystem.GD_f0cf08b7c3333631daf3ec05188f98331d265dfaf49f3d8d7df233511970cd49_3 phases=1 bus1=node_415525140.3.4 conn=wye kv=0.1270 pf=1 pmpp=1.11 kva=1.11 irradiance=1 temperature=25 %cutin=20 %cutout=20 effcurve=MyEff P-TCurve=MyPvsT Daily=IRRAD_DIA TDaily=TEMP_DIA
New PVSystem.GD_dcf7c6c75d1a3480d128a532a1410c93ea171052ea4929a20acdebe77c82ae38_1 phases=1 bus1=node_415525140.1.4 conn=wye kv=0.1270 pf=1 pmpp=2.54 kva=2.54 irradiance=1 temperature=25 %cutin=20 %cutout=20 effcurve=MyEff P-TCurve=MyPvsT Daily=IRRAD_DIA TDaily=TEMP_DIA
New PVSystem.GD_dcf7c6c75d1a3480d128a532a1410c93ea171052ea4929a20acdebe77c82ae38_2 phases=1 bus1=node_415525140.2.4 conn=wye kv=0.1270 pf=1 pmpp=2.54 kva=2.54 irradiance=1 temperature=25 %cutin=20 %cutout=20 effcurve=MyEff P-TCurve=MyPvsT Daily=IRRAD_DIA TDaily=TEMP_DIA
New PVSystem.GD_dcf7c6c75d1a3480d128a532a1410c93ea171052ea4929a20acdebe77c82ae38_3 phases=1 bus1=node_415525140.3.4 conn=wye kv=0.1270 pf=1 pmpp=2.54 kva=2.54 irradiance=1 temperature=25 %cutin=20 %cutout=20 effcurve=MyEff P-TCurve=MyPvsT Daily=IRRAD_DIA TDaily=TEMP_DIA
New PVSystem.GD_16ba93d24aca0d587987fd9a014a3aa668fcc6ac7a0b4c7dad9d4e4e58672a6a_1 phases=1 bus1=node_415724788.1.4 conn=wye kv=0.1270 pf=1 pmpp=2.48 kva=2.48 irradiance=1 temperature=25 %cutin=20 %cutout=20 effcurve=MyEff P-TCurve=MyPvsT Daily=IRRAD_DIA TDaily=TEMP_DIA
New PVSystem.GD_16ba93d24aca0d587987fd9a014a3aa668fcc6ac7a0b4c7dad9d4e4e58672a6a_2 phases=1 bus1=node_415724788.2.4 conn=wye kv=0.1270 pf=1 pmpp=2.48 kva=2.48 irradiance=1 temperature=25 %cutin=20 %cutout=20 effcurve=MyEff P-TCurve=MyPvsT Daily=IRRAD_DIA TDaily=TEMP_DIA
New PVSystem.GD_16ba93d24aca0d587987fd9a014a3aa668fcc6ac7a0b4c7dad9d4e4e58672a6a_3 phases=1 bus1=node_415724788.3.4 conn=wye kv=0.1270 pf=1 pmpp=2.48 kva=2.48 irradiance=1 temperature=25 %cutin=20 %cutout=20 effcurve=MyEff P-TCurve=MyPvsT Daily=IRRAD_DIA TDaily=TEMP_DIA
New PVSystem.GD_8ffb2d3290cc50de833a5784779a0c1b00852814b1b28533c33f04aec08f30c4_1 phases=1 bus1=node_415724788.1.4 conn=wye kv=0.1270 pf=1 pmpp=0.82 kva=0.82 irradiance=1 temperature=25 %cutin=20 %cutout=20 effcurve=MyEff P-TCurve=MyPvsT Daily=IRRAD_DIA TDaily=TEMP_DIA
New PVSystem.GD_8ffb2d3290cc50de833a5784779a0c1b00852814b1b28533c33f04aec08f30c4_2 phases=1 bus1=node_415724788.2.4 conn=wye kv=0.1270 pf=1 pmpp=0.82 kva=0.82 irradiance=1 temperature=25 %cutin=20 %cutout=20 effcurve=MyEff P-TCurve=MyPvsT Daily=IRRAD_DIA TDaily=TEMP_DIA
New PVSystem.GD_8ffb2d3290cc50de833a5784779a0c1b00852814b1b28533c33f04aec08f30c4_3 phases=1 bus1=node_415724788.3.4 conn=wye kv=0.1270 pf=1 pmpp=0.82 kva=0.82 irradiance=1 temperature=25 %cutin=20 %cutout=20 effcurve=MyEff P-TCurve=MyPvsT Daily=IRRAD_DIA TDaily=TEMP_DIA
New PVSystem.GD_afcc5bfac87d12c13a7525dc4a3a874447326ffe3ff1d722293802c2ff150e9b_1 phases=1 bus1=node_415724788.1.4 conn=wye kv=0.1270 pf=1 pmpp=2.77 kva=2.77 irradiance=1 temperature=25 %cutin=20 %cutout=20 effcurve=MyEff P-TCurve=MyPvsT Daily=IRRAD_DIA TDaily=TEMP_DIA
New PVSystem.GD_afcc5bfac87d12c13a7525dc4a3a874447326ffe3ff1d722293802c2ff150e9b_2 phases=1 bus1=node_415724788.2.4 conn=wye kv=0.1270 pf=1 pmpp=2.77 kva=2.77 irradiance=1 temperature=25 %cutin=20 %cutout=20 effcurve=MyEff P-TCurve=MyPvsT Daily=IRRAD_DIA TDaily=TEMP_DIA
New PVSystem.GD_afcc5bfac87d12c13a7525dc4a3a874447326ffe3ff1d722293802c2ff150e9b_3 phases=1 bus1=node_415724788.3.4 conn=wye kv=0.1270 pf=1 pmpp=2.77 kva=2.77 irradiance=1 temperature=25 %cutin=20 %cutout=20 effcurve=MyEff P-TCurve=MyPvsT Daily=IRRAD_DIA TDaily=TEMP_DIA
New PVSystem.GD_df085f23667219208c792b2d743e412749397604717960bc2d424fc0d751fb85_1 phases=1 bus1=node_416628800.1.4 conn=wye kv=0.1270 pf=1 pmpp=1.61 kva=1.61 irradiance=1 temperature=25 %cutin=20 %cutout=20 effcurve=MyEff P-TCurve=MyPvsT Daily=IRRAD_DIA TDaily=TEMP_DIA
New PVSystem.GD_df085f23667219208c792b2d743e412749397604717960bc2d424fc0d751fb85_2 phases=1 bus1=node_416628800.2.4 conn=wye kv=0.1270 pf=1 pmpp=1.61 kva=1.61 irradiance=1 temperature=25 %cutin=20 %cutout=20 effcurve=MyEff P-TCurve=MyPvsT Daily=IRRAD_DIA TDaily=TEMP_DIA
New PVSystem.GD_df085f23667219208c792b2d743e412749397604717960bc2d424fc0d751fb85_3 phases=1 bus1=node_416628800.3.4 conn=wye kv=0.1270 pf=1 pmpp=1.61 kva=1.61 irradiance=1 temperature=25 %cutin=20 %cutout=20 effcurve=MyEff P-TCurve=MyPvsT Daily=IRRAD_DIA TDaily=TEMP_DIA
New PVSystem.GD_63ac8b4a4ca815e80284581a59bf49109e6989d77a1cbe781c64b063832e27df_1 phases=1 bus1=node_403422643.1.4 conn=wye kv=0.1270 pf=1 pmpp=0.37 kva=0.37 irradiance=1 temperature=25 %cutin=20 %cutout=20 effcurve=MyEff P-TCurve=MyPvsT Daily=IRRAD_DIA TDaily=TEMP_DIA
New PVSystem.GD_63ac8b4a4ca815e80284581a59bf49109e6989d77a1cbe781c64b063832e27df_2 phases=1 bus1=node_403422643.2.4 conn=wye kv=0.1270 pf=1 pmpp=0.37 kva=0.37 irradiance=1 temperature=25 %cutin=20 %cutout=20 effcurve=MyEff P-TCurve=MyPvsT Daily=IRRAD_DIA TDaily=TEMP_DIA
New PVSystem.GD_63ac8b4a4ca815e80284581a59bf49109e6989d77a1cbe781c64b063832e27df_3 phases=1 bus1=node_403422643.3.4 conn=wye kv=0.1270 pf=1 pmpp=0.37 kva=0.37 irradiance=1 temperature=25 %cutin=20 %cutout=20 effcurve=MyEff P-TCurve=MyPvsT Daily=IRRAD_DIA TDaily=TEMP_DIA
New PVSystem.GD_813adb15ca7c9131eb6ebb2abc88cb6c17a9f8fd16218df31b0cb81d0f432233_1 phases=1 bus1=node_403422643.1.4 conn=wye kv=0.1270 pf=1 pmpp=0.79 kva=0.79 irradiance=1 temperature=25 %cutin=20 %cutout=20 effcurve=MyEff P-TCurve=MyPvsT Daily=IRRAD_DIA TDaily=TEMP_DIA
New PVSystem.GD_813adb15ca7c9131eb6ebb2abc88cb6c17a9f8fd16218df31b0cb81d0f432233_2 phases=1 bus1=node_403422643.2.4 conn=wye kv=0.1270 pf=1 pmpp=0.79 kva=0.79 irradiance=1 temperature=25 %cutin=20 %cutout=20 effcurve=MyEff P-TCurve=MyPvsT Daily=IRRAD_DIA TDaily=TEMP_DIA
New PVSystem.GD_813adb15ca7c9131eb6ebb2abc88cb6c17a9f8fd16218df31b0cb81d0f432233_3 phases=1 bus1=node_403422643.3.4 conn=wye kv=0.1270 pf=1 pmpp=0.79 kva=0.79 irradiance=1 temperature=25 %cutin=20 %cutout=20 effcurve=MyEff P-TCurve=MyPvsT Daily=IRRAD_DIA TDaily=TEMP_DIA
New PVSystem.GD_d2149c65bcee39dad55d8be9be5693ad4e588e4cd811551214c14f603718f2b7_1 phases=1 bus1=node_415577246.1.4 conn=wye kv=0.1270 pf=1 pmpp=0.94 kva=0.94 irradiance=1 temperature=25 %cutin=20 %cutout=20 effcurve=MyEff P-TCurve=MyPvsT Daily=IRRAD_DIA TDaily=TEMP_DIA
New PVSystem.GD_d2149c65bcee39dad55d8be9be5693ad4e588e4cd811551214c14f603718f2b7_2 phases=1 bus1=node_415577246.2.4 conn=wye kv=0.1270 pf=1 pmpp=0.94 kva=0.94 irradiance=1 temperature=25 %cutin=20 %cutout=20 effcurve=MyEff P-TCurve=MyPvsT Daily=IRRAD_DIA TDaily=TEMP_DIA
New PVSystem.GD_d2149c65bcee39dad55d8be9be5693ad4e588e4cd811551214c14f603718f2b7_3 phases=1 bus1=node_415577246.3.4 conn=wye kv=0.1270 pf=1 pmpp=0.94 kva=0.94 irradiance=1 temperature=25 %cutin=20 %cutout=20 effcurve=MyEff P-TCurve=MyPvsT Daily=IRRAD_DIA TDaily=TEMP_DIA
New PVSystem.GD_63f002bbcb0123689099b01bd4ef98ec42a461dbe80b5d45144ab3f2b48d9b1e_1 phases=1 bus1=node_415577246.1.4 conn=wye kv=0.1270 pf=1 pmpp=1.08 kva=1.08 irradiance=1 temperature=25 %cutin=20 %cutout=20 effcurve=MyEff P-TCurve=MyPvsT Daily=IRRAD_DIA TDaily=TEMP_DIA
New PVSystem.GD_63f002bbcb0123689099b01bd4ef98ec42a461dbe80b5d45144ab3f2b48d9b1e_2 phases=1 bus1=node_415577246.2.4 conn=wye kv=0.1270 pf=1 pmpp=1.08 kva=1.08 irradiance=1 temperature=25 %cutin=20 %cutout=20 effcurve=MyEff P-TCurve=MyPvsT Daily=IRRAD_DIA TDaily=TEMP_DIA
New PVSystem.GD_63f002bbcb0123689099b01bd4ef98ec42a461dbe80b5d45144ab3f2b48d9b1e_3 phases=1 bus1=node_415577246.3.4 conn=wye kv=0.1270 pf=1 pmpp=1.08 kva=1.08 irradiance=1 temperature=25 %cutin=20 %cutout=20 effcurve=MyEff P-TCurve=MyPvsT Daily=IRRAD_DIA TDaily=TEMP_DIA
New PVSystem.GD_7a26aae0498d811f895a3bb31a7b21f63883ea66a2735fe416f12645b2da8109_1 phases=1 bus1=node_415577246.1.4 conn=wye kv=0.1270 pf=1 pmpp=2.05 kva=2.05 irradiance=1 temperature=25 %cutin=20 %cutout=20 effcurve=MyEff P-TCurve=MyPvsT Daily=IRRAD_DIA TDaily=TEMP_DIA
New PVSystem.GD_7a26aae0498d811f895a3bb31a7b21f63883ea66a2735fe416f12645b2da8109_2 phases=1 bus1=node_415577246.2.4 conn=wye kv=0.1270 pf=1 pmpp=2.05 kva=2.05 irradiance=1 temperature=25 %cutin=20 %cutout=20 effcurve=MyEff P-TCurve=MyPvsT Daily=IRRAD_DIA TDaily=TEMP_DIA
New PVSystem.GD_7a26aae0498d811f895a3bb31a7b21f63883ea66a2735fe416f12645b2da8109_3 phases=1 bus1=node_415577246.3.4 conn=wye kv=0.1270 pf=1 pmpp=2.05 kva=2.05 irradiance=1 temperature=25 %cutin=20 %cutout=20 effcurve=MyEff P-TCurve=MyPvsT Daily=IRRAD_DIA TDaily=TEMP_DIA
New PVSystem.GD_be3fe8457f64083a2b08724db912484adc2084903fc27cbbaee96b913ff44ce9_1 phases=1 bus1=node_415577246.1.4 conn=wye kv=0.1270 pf=1 pmpp=1.15 kva=1.15 irradiance=1 temperature=25 %cutin=20 %cutout=20 effcurve=MyEff P-TCurve=MyPvsT Daily=IRRAD_DIA TDaily=TEMP_DIA
New PVSystem.GD_be3fe8457f64083a2b08724db912484adc2084903fc27cbbaee96b913ff44ce9_2 phases=1 bus1=node_415577246.2.4 conn=wye kv=0.1270 pf=1 pmpp=1.15 kva=1.15 irradiance=1 temperature=25 %cutin=20 %cutout=20 effcurve=MyEff P-TCurve=MyPvsT Daily=IRRAD_DIA TDaily=TEMP_DIA
New PVSystem.GD_be3fe8457f64083a2b08724db912484adc2084903fc27cbbaee96b913ff44ce9_3 phases=1 bus1=node_415577246.3.4 conn=wye kv=0.1270 pf=1 pmpp=1.15 kva=1.15 irradiance=1 temperature=25 %cutin=20 %cutout=20 effcurve=MyEff P-TCurve=MyPvsT Daily=IRRAD_DIA TDaily=TEMP_DIA
New PVSystem.GD_b2c0cafa32bc15fb32f68a6d9ebb9244ee2860f90ea6399dac80658f01cd0c51_1 phases=1 bus1=node_415577246.1.4 conn=wye kv=0.1270 pf=1 pmpp=0.76 kva=0.76 irradiance=1 temperature=25 %cutin=20 %cutout=20 effcurve=MyEff P-TCurve=MyPvsT Daily=IRRAD_DIA TDaily=TEMP_DIA
New PVSystem.GD_b2c0cafa32bc15fb32f68a6d9ebb9244ee2860f90ea6399dac80658f01cd0c51_2 phases=1 bus1=node_415577246.2.4 conn=wye kv=0.1270 pf=1 pmpp=0.76 kva=0.76 irradiance=1 temperature=25 %cutin=20 %cutout=20 effcurve=MyEff P-TCurve=MyPvsT Daily=IRRAD_DIA TDaily=TEMP_DIA
New PVSystem.GD_b2c0cafa32bc15fb32f68a6d9ebb9244ee2860f90ea6399dac80658f01cd0c51_3 phases=1 bus1=node_415577246.3.4 conn=wye kv=0.1270 pf=1 pmpp=0.76 kva=0.76 irradiance=1 temperature=25 %cutin=20 %cutout=20 effcurve=MyEff P-TCurve=MyPvsT Daily=IRRAD_DIA TDaily=TEMP_DIA
New PVSystem.GD_6e4a7a3cf0a6bf69e484df3ce97f6a2e391693cd469d78982324b7709bdc9708_1 phases=1 bus1=node_415573772.1.4 conn=wye kv=0.1270 pf=1 pmpp=0.57 kva=0.57 irradiance=1 temperature=25 %cutin=20 %cutout=20 effcurve=MyEff P-TCurve=MyPvsT Daily=IRRAD_DIA TDaily=TEMP_DIA
New PVSystem.GD_6e4a7a3cf0a6bf69e484df3ce97f6a2e391693cd469d78982324b7709bdc9708_2 phases=1 bus1=node_415573772.2.4 conn=wye kv=0.1270 pf=1 pmpp=0.57 kva=0.57 irradiance=1 temperature=25 %cutin=20 %cutout=20 effcurve=MyEff P-TCurve=MyPvsT Daily=IRRAD_DIA TDaily=TEMP_DIA
New PVSystem.GD_6e4a7a3cf0a6bf69e484df3ce97f6a2e391693cd469d78982324b7709bdc9708_3 phases=1 bus1=node_415573772.3.4 conn=wye kv=0.1270 pf=1 pmpp=0.57 kva=0.57 irradiance=1 temperature=25 %cutin=20 %cutout=20 effcurve=MyEff P-TCurve=MyPvsT Daily=IRRAD_DIA TDaily=TEMP_DIA
New PVSystem.GD_115db3ab0ff03caaa89e8670ece5d5c34ab9248f3ca3700fe5d7cf418a79295a_1 phases=1 bus1=node_415573772.1.4 conn=wye kv=0.1270 pf=1 pmpp=0.97 kva=0.97 irradiance=1 temperature=25 %cutin=20 %cutout=20 effcurve=MyEff P-TCurve=MyPvsT Daily=IRRAD_DIA TDaily=TEMP_DIA
New PVSystem.GD_115db3ab0ff03caaa89e8670ece5d5c34ab9248f3ca3700fe5d7cf418a79295a_2 phases=1 bus1=node_415573772.2.4 conn=wye kv=0.1270 pf=1 pmpp=0.97 kva=0.97 irradiance=1 temperature=25 %cutin=20 %cutout=20 effcurve=MyEff P-TCurve=MyPvsT Daily=IRRAD_DIA TDaily=TEMP_DIA
New PVSystem.GD_115db3ab0ff03caaa89e8670ece5d5c34ab9248f3ca3700fe5d7cf418a79295a_3 phases=1 bus1=node_415573772.3.4 conn=wye kv=0.1270 pf=1 pmpp=0.97 kva=0.97 irradiance=1 temperature=25 %cutin=20 %cutout=20 effcurve=MyEff P-TCurve=MyPvsT Daily=IRRAD_DIA TDaily=TEMP_DIA
New PVSystem.GD_c9c199f0be87daab70c41ee9b83510ff88c0b2ace6c5e46138efdd5c0384d466_1 phases=1 bus1=node_415573772.1.4 conn=wye kv=0.1270 pf=1 pmpp=0.81 kva=0.81 irradiance=1 temperature=25 %cutin=20 %cutout=20 effcurve=MyEff P-TCurve=MyPvsT Daily=IRRAD_DIA TDaily=TEMP_DIA
...
